const CACHE_NAME = 'watools-v2.0.0';
const STATIC_CACHE = 'watools-static-v2.0.0';
const DYNAMIC_CACHE = 'watools-dynamic-v2.0.0';

// Files to cache immediately
const STATIC_FILES = [
  '/',
  '/index.html',
  '/manifest.json',
  '/icon-192.png',
  '/icon-512.png',
  '/Favico.png'
];

// Install event - cache static files
self.addEventListener('install', (event) => {
  console.log('Service Worker installing...');
  event.waitUntil(
    caches.open(STATIC_CACHE)
      .then((cache) => {
        console.log('Caching static files');
        return cache.addAll(STATIC_FILES);
      })
      .then(() => {
        console.log('Static files cached successfully');
        return self.skipWaiting();
      })
      .catch((error) => {
        console.error('Error caching static files:', error);
      })
  );
});

// Activate event - clean up old caches
self.addEventListener('activate', (event) => {
  console.log('Service Worker activating...');
  event.waitUntil(
    caches.keys()
      .then((cacheNames) => {
        return Promise.all(
          cacheNames.map((cacheName) => {
            if (cacheName !== STATIC_CACHE && cacheName !== DYNAMIC_CACHE) {
              console.log('Deleting old cache:', cacheName);
              return caches.delete(cacheName);
            }
          })
        );
      })
      .then(() => {
        console.log('Service Worker activated');
        return self.clients.claim();
      })
  );
});

// Fetch event - serve from cache, fallback to network
self.addEventListener('fetch', (event) => {
  const { request } = event;
  const url = new URL(request.url);

  // Skip non-GET requests
  if (request.method !== 'GET') {
    return;
  }

  // Skip external requests
  if (url.origin !== location.origin) {
    return;
  }

  event.respondWith(
    caches.match(request)
      .then((cachedResponse) => {
        if (cachedResponse) {
          console.log('Serving from cache:', request.url);
          return cachedResponse;
        }

        // Not in cache, fetch from network
        return fetch(request)
          .then((networkResponse) => {
            // Don't cache non-successful responses
            if (!networkResponse || networkResponse.status !== 200 || networkResponse.type !== 'basic') {
              return networkResponse;
            }

            // Clone the response
            const responseToCache = networkResponse.clone();

            // Determine which cache to use
            const cacheToUse = STATIC_FILES.includes(url.pathname) ? STATIC_CACHE : DYNAMIC_CACHE;

            // Cache the response
            caches.open(cacheToUse)
              .then((cache) => {
                console.log('Caching new resource:', request.url);
                cache.put(request, responseToCache);
              });

            return networkResponse;
          })
          .catch((error) => {
            console.error('Fetch failed:', error);
            
            // Return offline page for navigation requests
            if (request.destination === 'document') {
              return caches.match('/index.html');
            }
            
            throw error;
          });
      })
  );
});

// Background sync for offline actions
self.addEventListener('sync', (event) => {
  console.log('Background sync triggered:', event.tag);
  
  if (event.tag === 'background-sync') {
    event.waitUntil(
      // This would trigger sync of offline actions
      syncOfflineData()
    );
  }
});

// Push notifications (for future use)
self.addEventListener('push', (event) => {
  console.log('Push notification received:', event);
  
  const options = {
    body: event.data ? event.data.text() : 'Nueva notificación de WAtools',
    icon: '/icon-192.png',
    badge: '/icon-72.png',
    vibrate: [100, 50, 100],
    data: {
      dateOfArrival: Date.now(),
      primaryKey: 1
    },
    actions: [
      {
        action: 'explore',
        title: 'Ver detalles',
        icon: '/icon-192.png'
      },
      {
        action: 'close',
        title: 'Cerrar',
        icon: '/icon-192.png'
      }
    ]
  };

  event.waitUntil(
    self.registration.showNotification('WAtools', options)
  );
});

// Notification click handler
self.addEventListener('notificationclick', (event) => {
  console.log('Notification clicked:', event);
  
  event.notification.close();

  if (event.action === 'explore') {
    event.waitUntil(
      clients.openWindow('/')
    );
  }
});

// Sync offline data function
async function syncOfflineData() {
  try {
    console.log('Syncing offline data...');
    // This would contain actual sync logic
    // For now, just log that sync was attempted
    return Promise.resolve();
  } catch (error) {
    console.error('Error syncing offline data:', error);
    throw error;
  }
}

// Message handler for communication with main thread
self.addEventListener('message', (event) => {
  console.log('Service Worker received message:', event.data);
  
  if (event.data && event.data.type === 'SKIP_WAITING') {
    self.skipWaiting();
  }
});